// Simulation file
simulator lang=spectre

VDD (VDD 0) vsource dc=1.1
VSS (VSS 0) vsource dc=0 
WL_EN (WL_EN 0) vsource dc=0 
CLK (CLK 0) vsource type=pulse val1=1.1 val=0 delay=5n  rise=0.005n fall=0.005n width=5n period=10n 
RESET (RESET 0) vsource type=pulse val1=1.1 val=0 delay=7n  rise=0.005n fall=0.005n width=60n period=120n 

IN0_0 (IN0_0 0) vsource type=pulse val1=1.1 val=0 delay=0 rise=0.005n fall=0.005n width=10n period=20n  
IN1_0 (IN1_0 0) vsource type=pulse val1=1.1 val=0 delay=0 rise=0.005n fall=0.005n width=10n period=20n 
IN2_0 (IN2_0 0) vsource type=pulse val1=1.1 val=0 delay=0 rise=0.005n fall=0.005n width=10n period=20n 
IN3_0 (IN3_0 0) vsource type=pulse val1=1.1 val=0 delay=0 rise=0.005n fall=0.005n width=10n period=20n 
IN4_0 (IN4_0 0) vsource type=pulse val1=1.1 val=0 delay=0 rise=0.005n fall=0.005n width=10n period=20n 
IN5_0 (IN5_0 0) vsource type=pulse val1=1.1 val=0 delay=0 rise=0.005n fall=0.005n width=10n period=20n 
IN6_0 (IN6_0 0) vsource type=pulse val1=1.1 val=0 delay=0 rise=0.005n fall=0.005n width=10n period=20n 
IN7_0 (IN7_0 0) vsource type=pulse val1=1.1 val=0 delay=0 rise=0.005n fall=0.005n width=10n period=20n 
IN8_0 (IN8_0 0) vsource type=pulse val1=1.1 val=0 delay=0 rise=0.005n fall=0.005n width=10n period=20n 
IN9_0 (IN9_0 0) vsource type=pulse val1=1.1 val=0 delay=0 rise=0.005n fall=0.005n width=10n period=20n 
IN10_0 (IN10_0 0) vsource type=pulse val1=1.1 val=0 delay=0 rise=0.005n fall=0.005n width=10n period=20n 
IN11_0 (IN11_0 0) vsource type=pulse val1=1.1 val=0 delay=0 rise=0.005n fall=0.005n width=10n period=20n 
IN12_0 (IN12_0 0) vsource type=pulse val1=1.1 val=0 delay=0 rise=0.005n fall=0.005n width=10n period=20n 
IN13_0 (IN13_0 0) vsource type=pulse val1=1.1 val=0 delay=0 rise=0.005n fall=0.005n width=10n period=20n 
IN14_0 (IN14_0 0) vsource type=pulse val1=1.1 val=0 delay=0 rise=0.005n fall=0.005n width=10n period=20n 
IN15_0 (IN15_0 0) vsource type=pulse val1=1.1 val=0 delay=0 rise=0.005n fall=0.005n width=10n period=20n 
IN16_0 (IN16_0 0) vsource type=pulse val1=1.1 val=0 delay=0 rise=0.005n fall=0.005n width=10n period=20n 
IN17_0 (IN17_0 0) vsource type=pulse val1=1.1 val=0 delay=0 rise=0.005n fall=0.005n width=10n period=20n 
IN18_0 (IN18_0 0) vsource type=pulse val1=1.1 val=0 delay=0 rise=0.005n fall=0.005n width=10n period=20n 
IN19_0 (IN19_0 0) vsource type=pulse val1=1.1 val=0 delay=0 rise=0.005n fall=0.005n width=10n period=20n 
IN20_0 (IN20_0 0) vsource type=pulse val1=1.1 val=0 delay=0 rise=0.005n fall=0.005n width=10n period=20n 
IN21_0 (IN21_0 0) vsource type=pulse val1=1.1 val=0 delay=0 rise=0.005n fall=0.005n width=10n period=20n 
IN22_0 (IN22_0 0) vsource type=pulse val1=1.1 val=0 delay=0 rise=0.005n fall=0.005n width=10n period=20n 
IN23_0 (IN23_0 0) vsource type=pulse val1=1.1 val=0 delay=0 rise=0.005n fall=0.005n width=10n period=20n 
IN24_0 (IN24_0 0) vsource type=pulse val1=1.1 val=0 delay=0 rise=0.005n fall=0.005n width=10n period=20n 
IN25_0 (IN25_0 0) vsource type=pulse val1=1.1 val=0 delay=0 rise=0.005n fall=0.005n width=10n period=20n 
IN26_0 (IN26_0 0) vsource type=pulse val1=1.1 val=0 delay=0 rise=0.005n fall=0.005n width=10n period=20n 
IN27_0 (IN27_0 0) vsource type=pulse val1=1.1 val=0 delay=0 rise=0.005n fall=0.005n width=10n period=20n 
IN28_0 (IN28_0 0) vsource type=pulse val1=1.1 val=0 delay=0 rise=0.005n fall=0.005n width=10n period=20n 
IN29_0 (IN29_0 0) vsource type=pulse val1=1.1 val=0 delay=0 rise=0.005n fall=0.005n width=10n period=20n 
IN30_0 (IN30_0 0) vsource type=pulse val1=1.1 val=0 delay=0 rise=0.005n fall=0.005n width=10n period=20n 
IN31_0 (IN31_0 0) vsource type=pulse val1=1.1 val=0 delay=0 rise=0.005n fall=0.005n width=10n period=20n 
IN32_0 (IN32_0 0) vsource type=pulse val1=1.1 val=0 delay=0 rise=0.005n fall=0.005n width=10n period=20n 
IN33_0 (IN33_0 0) vsource type=pulse val1=1.1 val=0 delay=0 rise=0.005n fall=0.005n width=10n period=20n 
IN34_0 (IN34_0 0) vsource type=pulse val1=1.1 val=0 delay=0 rise=0.005n fall=0.005n width=10n period=20n 
IN35_0 (IN35_0 0) vsource type=pulse val1=1.1 val=0 delay=0 rise=0.005n fall=0.005n width=10n period=20n 
IN36_0 (IN36_0 0) vsource type=pulse val1=1.1 val=0 delay=0 rise=0.005n fall=0.005n width=10n period=20n 
IN37_0 (IN37_0 0) vsource type=pulse val1=1.1 val=0 delay=0 rise=0.005n fall=0.005n width=10n period=20n 
IN38_0 (IN38_0 0) vsource type=pulse val1=1.1 val=0 delay=0 rise=0.005n fall=0.005n width=10n period=20n 
IN39_0 (IN39_0 0) vsource type=pulse val1=1.1 val=0 delay=0 rise=0.005n fall=0.005n width=10n period=20n 
IN40_0 (IN40_0 0) vsource type=pulse val1=1.1 val=0 delay=0 rise=0.005n fall=0.005n width=10n period=20n 
IN41_0 (IN41_0 0) vsource type=pulse val1=1.1 val=0 delay=0 rise=0.005n fall=0.005n width=10n period=20n 
IN42_0 (IN42_0 0) vsource type=pulse val1=1.1 val=0 delay=0 rise=0.005n fall=0.005n width=10n period=20n 
IN43_0 (IN43_0 0) vsource type=pulse val1=1.1 val=0 delay=0 rise=0.005n fall=0.005n width=10n period=20n 
IN44_0 (IN44_0 0) vsource type=pulse val1=1.1 val=0 delay=0 rise=0.005n fall=0.005n width=10n period=20n 
IN45_0 (IN45_0 0) vsource type=pulse val1=1.1 val=0 delay=0 rise=0.005n fall=0.005n width=10n period=20n 
IN46_0 (IN46_0 0) vsource type=pulse val1=1.1 val=0 delay=0 rise=0.005n fall=0.005n width=10n period=20n 
IN47_0 (IN47_0 0) vsource type=pulse val1=1.1 val=0 delay=0 rise=0.005n fall=0.005n width=10n period=20n 
IN48_0 (IN48_0 0) vsource type=pulse val1=1.1 val=0 delay=0 rise=0.005n fall=0.005n width=10n period=20n 
IN49_0 (IN49_0 0) vsource type=pulse val1=1.1 val=0 delay=0 rise=0.005n fall=0.005n width=10n period=20n 
IN50_0 (IN50_0 0) vsource type=pulse val1=1.1 val=0 delay=0 rise=0.005n fall=0.005n width=10n period=20n 
IN51_0 (IN51_0 0) vsource type=pulse val1=1.1 val=0 delay=0 rise=0.005n fall=0.005n width=10n period=20n 
IN52_0 (IN52_0 0) vsource type=pulse val1=1.1 val=0 delay=0 rise=0.005n fall=0.005n width=10n period=20n 
IN53_0 (IN53_0 0) vsource type=pulse val1=1.1 val=0 delay=0 rise=0.005n fall=0.005n width=10n period=20n 
IN54_0 (IN54_0 0) vsource type=pulse val1=1.1 val=0 delay=0 rise=0.005n fall=0.005n width=10n period=20n 
IN55_0 (IN55_0 0) vsource type=pulse val1=1.1 val=0 delay=0n  rise=0.005n fall=0.005n width=10n period=20n 
IN56_0 (IN56_0 0) vsource type=pulse val1=1.1 val=0 delay=0n  rise=0.005n fall=0.005n width=10n period=20n 
IN57_0 (IN57_0 0) vsource type=pulse val1=1.1 val=0 delay=0n  rise=0.005n fall=0.005n width=10n period=20n 
IN58_0 (IN58_0 0) vsource type=pulse val1=1.1 val=0 delay=0n  rise=0.005n fall=0.005n width=10n period=20n 
IN59_0 (IN59_0 0) vsource type=pulse val1=1.1 val=0 delay=0n  rise=0.005n fall=0.005n width=10n period=20n 
IN60_0 (IN60_0 0) vsource type=pulse val1=1.1 val=0 delay=0n  rise=0.005n fall=0.005n width=10n period=20n 
IN61_0 (IN61_0 0) vsource type=pulse val1=1.1 val=0 delay=0n  rise=0.005n fall=0.005n width=10n period=20n 
IN62_0 (IN62_0 0) vsource type=pulse val1=1.1 val=0 delay=0n  rise=0.005n fall=0.005n width=10n period=20n 
IN63_0 (IN63_0 0) vsource type=pulse val1=1.1 val=0 delay=0n  rise=0.005n fall=0.005n width=10n period=20n 



Q0_3 (Q0_3 0) vsource dc=0
Q0_2 (Q0_2 0) vsource dc=1.1
Q0_1 (Q0_1 0) vsource dc=0
Q0_0 (Q0_0 0) vsource dc=0

Q1_3 (Q1_3 0) vsource dc=1.1
Q1_2 (Q1_2 0) vsource dc=0
Q1_1 (Q1_1 0) vsource dc=0
Q1_0 (Q1_0 0) vsource dc=0

Q2_3 (Q2_3 0) vsource dc=0
Q2_2 (Q2_2 0) vsource dc=0
Q2_1 (Q2_1 0) vsource dc=0
Q2_0 (Q2_0 0) vsource dc=0

Q3_3 (Q3_3 0) vsource dc=0
Q3_2 (Q3_2 0) vsource dc=0
Q3_1 (Q3_1 0) vsource dc=0
Q3_0 (Q3_0 0) vsource dc=1.1

Q4_3 (Q4_3 0) vsource dc=0
Q4_2 (Q4_2 0) vsource dc=0
Q4_1 (Q4_1 0) vsource dc=1.1
Q4_0 (Q4_0 0) vsource dc=1.1

Q5_3 (Q5_3 0) vsource dc=1.1
Q5_2 (Q5_2 0) vsource dc=0
Q5_1 (Q5_1 0) vsource dc=0
Q5_0 (Q5_0 0) vsource dc=0

Q6_3 (Q6_3 0) vsource dc=1.1
Q6_2 (Q6_2 0) vsource dc=0
Q6_1 (Q6_1 0) vsource dc=0
Q6_0 (Q6_0 0) vsource dc=1.1

Q7_3 (Q7_3 0) vsource dc=1.1
Q7_2 (Q7_2 0) vsource dc=1.1
Q7_1 (Q7_1 0) vsource dc=0
Q7_0 (Q7_0 0) vsource dc=0

Q8_3 (Q8_3 0) vsource dc=0
Q8_2 (Q8_2 0) vsource dc=0
Q8_1 (Q8_1 0) vsource dc=1.1
Q8_0 (Q8_0 0) vsource dc=0

Q9_3 (Q9_3 0) vsource dc=0
Q9_2 (Q9_2 0) vsource dc=1.1
Q9_1 (Q9_1 0) vsource dc=1.1
Q9_0 (Q9_0 0) vsource dc=1.1

Q10_3 (Q10_3 0) vsource dc=0
Q10_2 (Q10_2 0) vsource dc=1.1
Q10_1 (Q10_1 0) vsource dc=0
Q10_0 (Q10_0 0) vsource dc=1.1

Q11_3 (Q11_3 0) vsource dc=1.1
Q11_2 (Q11_2 0) vsource dc=0
Q11_1 (Q11_1 0) vsource dc=1.1
Q11_0 (Q11_0 0) vsource dc=1.1

Q12_3 (Q12_3 0) vsource dc=1.1
Q12_2 (Q12_2 0) vsource dc=0
Q12_1 (Q12_1 0) vsource dc=1.1
Q12_0 (Q12_0 0) vsource dc=0

Q13_3 (Q13_3 0) vsource dc=1.1
Q13_2 (Q13_2 0) vsource dc=1.1
Q13_1 (Q13_1 0) vsource dc=1.1
Q13_0 (Q13_0 0) vsource dc=1.1

Q14_3 (Q14_3 0) vsource dc=1.1
Q14_2 (Q14_2 0) vsource dc=1.1
Q14_1 (Q14_1 0) vsource dc=0
Q14_0 (Q14_0 0) vsource dc=0

Q15_3 (Q15_3 0) vsource dc=1.1
Q15_2 (Q15_2 0) vsource dc=1.1
Q15_1 (Q15_1 0) vsource dc=0
Q15_0 (Q15_0 0) vsource dc=1.1


Q16_3 (Q16_3 0) vsource dc=1.1
Q16_2 (Q16_2 0) vsource dc=1.1
Q16_1 (Q16_1 0) vsource dc=0
Q16_0 (Q16_0 0) vsource dc=1.1

Q17_3 (Q17_3 0) vsource dc=1.1
Q17_2 (Q17_2 0) vsource dc=0
Q17_1 (Q17_1 0) vsource dc=1.1
Q17_0 (Q17_0 0) vsource dc=0

Q18_3 (Q18_3 0) vsource dc=1.1
Q18_2 (Q18_2 0) vsource dc=1.1
Q18_1 (Q18_1 0) vsource dc=1.1
Q18_0 (Q18_0 0) vsource dc=1.1

Q19_3 (Q19_3 0) vsource dc=1.1
Q19_2 (Q19_2 0) vsource dc=0
Q19_1 (Q19_1 0) vsource dc=0
Q19_0 (Q19_0 0) vsource dc=0

Q20_3 (Q20_3 0) vsource dc=0
Q20_2 (Q20_2 0) vsource dc=1.1
Q20_1 (Q20_1 0) vsource dc=1.1
Q20_0 (Q20_0 0) vsource dc=0

Q21_3 (Q21_3 0) vsource dc=1.1
Q21_2 (Q21_2 0) vsource dc=1.1
Q21_1 (Q21_1 0) vsource dc=1.1
Q21_0 (Q21_0 0) vsource dc=0

Q22_3 (Q22_3 0) vsource dc=0
Q22_2 (Q22_2 0) vsource dc=1.1
Q22_1 (Q22_1 0) vsource dc=0
Q22_0 (Q22_0 0) vsource dc=1.1

Q23_3 (Q23_3 0) vsource dc=0
Q23_2 (Q23_2 0) vsource dc=1.1
Q23_1 (Q23_1 0) vsource dc=1.1
Q23_0 (Q23_0 0) vsource dc=1.1

Q24_3 (Q24_3 0) vsource dc=1.1
Q24_2 (Q24_2 0) vsource dc=1.1
Q24_1 (Q24_1 0) vsource dc=1.1
Q24_0 (Q24_0 0) vsource dc=1.1

Q25_3 (Q25_3 0) vsource dc=1.1
Q25_2 (Q25_2 0) vsource dc=1.1
Q25_1 (Q25_1 0) vsource dc=1.1
Q25_0 (Q25_0 0) vsource dc=1.1

Q26_3 (Q26_3 0) vsource dc=0
Q26_2 (Q26_2 0) vsource dc=0
Q26_1 (Q26_1 0) vsource dc=0
Q26_0 (Q26_0 0) vsource dc=1.1

Q27_3 (Q27_3 0) vsource dc=0
Q27_2 (Q27_2 0) vsource dc=0
Q27_1 (Q27_1 0) vsource dc=0
Q27_0 (Q27_0 0) vsource dc=0

Q28_3 (Q28_3 0) vsource dc=1.1
Q28_2 (Q28_2 0) vsource dc=1.1
Q28_1 (Q28_1 0) vsource dc=1.1
Q28_0 (Q28_0 0) vsource dc=0

Q29_3 (Q29_3 0) vsource dc=0
Q29_2 (Q29_2 0) vsource dc=1.1
Q29_1 (Q29_1 0) vsource dc=0
Q29_0 (Q29_0 0) vsource dc=1.1

Q30_3 (Q30_3 0) vsource dc=0
Q30_2 (Q30_2 0) vsource dc=1.1
Q30_1 (Q30_1 0) vsource dc=0
Q30_0 (Q30_0 0) vsource dc=0

Q31_3 (Q31_3 0) vsource dc=1.1
Q31_2 (Q31_2 0) vsource dc=0
Q31_1 (Q31_1 0) vsource dc=0
Q31_0 (Q31_0 0) vsource dc=1.1

Q32_3 (Q32_3 0) vsource dc=0
Q32_2 (Q32_2 0) vsource dc=1.1
Q32_1 (Q32_1 0) vsource dc=0
Q32_0 (Q32_0 0) vsource dc=0

Q33_3 (Q33_3 0) vsource dc=1.1
Q33_2 (Q33_2 0) vsource dc=1.1
Q33_1 (Q33_1 0) vsource dc=1.1
Q33_0 (Q33_0 0) vsource dc=1.1

Q34_3 (Q34_3 0) vsource dc=1.1
Q34_2 (Q34_2 0) vsource dc=0
Q34_1 (Q34_1 0) vsource dc=0
Q34_0 (Q34_0 0) vsource dc=1.1

Q35_3 (Q35_3 0) vsource dc=1.1
Q35_2 (Q35_2 0) vsource dc=0
Q35_1 (Q35_1 0) vsource dc=0
Q35_0 (Q35_0 0) vsource dc=1.1

Q36_3 (Q36_3 0) vsource dc=1.1
Q36_2 (Q36_2 0) vsource dc=0
Q36_1 (Q36_1 0) vsource dc=0
Q36_0 (Q36_0 0) vsource dc=0

Q37_3 (Q37_3 0) vsource dc=0
Q37_2 (Q37_2 0) vsource dc=1.1
Q37_1 (Q37_1 0) vsource dc=0
Q37_0 (Q37_0 0) vsource dc=0

Q38_3 (Q38_3 0) vsource dc=0
Q38_2 (Q38_2 0) vsource dc=1.1
Q38_1 (Q38_1 0) vsource dc=0
Q38_0 (Q38_0 0) vsource dc=1.1

Q39_3 (Q39_3 0) vsource dc=1.1
Q39_2 (Q39_2 0) vsource dc=1.1
Q39_1 (Q39_1 0) vsource dc=1.1
Q39_0 (Q39_0 0) vsource dc=1.1

Q40_3 (Q40_3 0) vsource dc=1.1
Q40_2 (Q40_2 0) vsource dc=0
Q40_1 (Q40_1 0) vsource dc=0
Q40_0 (Q40_0 0) vsource dc=0

Q41_3 (Q41_3 0) vsource dc=0
Q41_2 (Q41_2 0) vsource dc=1.1
Q41_1 (Q41_1 0) vsource dc=0
Q41_0 (Q41_0 0) vsource dc=0

Q42_3 (Q42_3 0) vsource dc=0
Q42_2 (Q42_2 0) vsource dc=0
Q42_1 (Q42_1 0) vsource dc=0
Q42_0 (Q42_0 0) vsource dc=0

Q43_3 (Q43_3 0) vsource dc=0
Q43_2 (Q43_2 0) vsource dc=1.1
Q43_1 (Q43_1 0) vsource dc=1.1
Q43_0 (Q43_0 0) vsource dc=1.1

Q44_3 (Q44_3 0) vsource dc=1.1
Q44_2 (Q44_2 0) vsource dc=0
Q44_1 (Q44_1 0) vsource dc=0
Q44_0 (Q44_0 0) vsource dc=1.1

Q45_3 (Q45_3 0) vsource dc=1.1
Q45_2 (Q45_2 0) vsource dc=1.1
Q45_1 (Q45_1 0) vsource dc=0
Q45_0 (Q45_0 0) vsource dc=0

Q46_3 (Q46_3 0) vsource dc=1.1
Q46_2 (Q46_2 0) vsource dc=0
Q46_1 (Q46_1 0) vsource dc=1.1
Q46_0 (Q46_0 0) vsource dc=0

Q47_3 (Q47_3 0) vsource dc=0
Q47_2 (Q47_2 0) vsource dc=0
Q47_1 (Q47_1 0) vsource dc=1.1
Q47_0 (Q47_0 0) vsource dc=0

Q48_3 (Q48_3 0) vsource dc=0
Q48_2 (Q48_2 0) vsource dc=0
Q48_1 (Q48_1 0) vsource dc=0
Q48_0 (Q48_0 0) vsource dc=1.1

Q49_3 (Q49_3 0) vsource dc=1.1
Q49_2 (Q49_2 0) vsource dc=1.1
Q49_1 (Q49_1 0) vsource dc=0
Q49_0 (Q49_0 0) vsource dc=1.1

Q50_3 (Q50_3 0) vsource dc=1.1
Q50_2 (Q50_2 0) vsource dc=1.1
Q50_1 (Q50_1 0) vsource dc=1.1
Q50_0 (Q50_0 0) vsource dc=1.1

Q51_3 (Q51_3 0) vsource dc=1.1
Q51_2 (Q51_2 0) vsource dc=0
Q51_1 (Q51_1 0) vsource dc=0
Q51_0 (Q51_0 0) vsource dc=1.1

Q52_3 (Q52_3 0) vsource dc=1.1
Q52_2 (Q52_2 0) vsource dc=1.1
Q52_1 (Q52_1 0) vsource dc=0
Q52_0 (Q52_0 0) vsource dc=0

Q53_3 (Q53_3 0) vsource dc=0
Q53_2 (Q53_2 0) vsource dc=0
Q53_1 (Q53_1 0) vsource dc=1.1
Q53_0 (Q53_0 0) vsource dc=0

Q54_3 (Q54_3 0) vsource dc=0
Q54_2 (Q54_2 0) vsource dc=1.1
Q54_1 (Q54_1 0) vsource dc=1.1
Q54_0 (Q54_0 0) vsource dc=1.1

Q55_3 (Q55_3 0) vsource dc=0
Q55_2 (Q55_2 0) vsource dc=1.1
Q55_1 (Q55_1 0) vsource dc=1.1
Q55_0 (Q55_0 0) vsource dc=0

Q56_3 (Q56_3 0) vsource dc=1.1
Q56_2 (Q56_2 0) vsource dc=1.1
Q56_1 (Q56_1 0) vsource dc=1.1
Q56_0 (Q56_0 0) vsource dc=1.1

Q57_3 (Q57_3 0) vsource dc=1.1
Q57_2 (Q57_2 0) vsource dc=0
Q57_1 (Q57_1 0) vsource dc=0
Q57_0 (Q57_0 0) vsource dc=1.1

Q58_3 (Q58_3 0) vsource dc=1.1
Q58_2 (Q58_2 0) vsource dc=1.1
Q58_1 (Q58_1 0) vsource dc=1.1
Q58_0 (Q58_0 0) vsource dc=1.1

Q59_3 (Q59_3 0) vsource dc=0
Q59_2 (Q59_2 0) vsource dc=1.1
Q59_1 (Q59_1 0) vsource dc=0
Q59_0 (Q59_0 0) vsource dc=1.1

Q60_3 (Q60_3 0) vsource dc=1.1
Q60_2 (Q60_2 0) vsource dc=1.1
Q60_1 (Q60_1 0) vsource dc=0
Q60_0 (Q60_0 0) vsource dc=1.1

Q61_3 (Q61_3 0) vsource dc=1.1
Q61_2 (Q61_2 0) vsource dc=1.1
Q61_1 (Q61_1 0) vsource dc=1.1
Q61_0 (Q61_0 0) vsource dc=0

Q62_3 (Q62_3 0) vsource dc=0
Q62_2 (Q62_2 0) vsource dc=1.1
Q62_1 (Q62_1 0) vsource dc=1.1
Q62_0 (Q62_0 0) vsource dc=1.1

Q63_3 (Q63_3 0) vsource dc=0
Q63_2 (Q63_2 0) vsource dc=0
Q63_1 (Q63_1 0) vsource dc=1.1
Q63_0 (Q63_0 0) vsource dc=0

