// Simulation file
simulator lang=spectre



VDD (VDD 0) vsource dc=1.1
VSS (VSS 0) vsource dc=0 
WL_EN (WL_EN 0) vsource dc=0 
CLK (CLK 0) vsource type=pulse val1=1.1 val=0 delay=0.5n  rise=0.005n fall=0.005n width=0.5n period=1n 
RESET (RESET 0) vsource type=pulse val1=1.1 val=0 delay=0.7n  rise=0.005n fall=0.005n width=60n period=120n 




ic
+ Q0_3=0 Q0_2=1.1 Q0_1=0 Q0_0=0   
+ Q1_3=1.1 Q1_2=0 Q1_1=0 Q1_0=0
+ Q2_3=0 Q2_2=0 Q2_1=0 Q2_0=0
+ Q3_3=0 Q3_2=0 Q3_1=0 Q3_0=1.1
+ Q4_3=0 Q4_2=0 Q4_1=1.1 Q4_0=1.1
+ Q5_3=1.1 Q5_2=0 Q5_1=0 Q5_0=0
+ Q6_3=1.1 Q6_2=0 Q6_1=0 Q6_0=1.1
+ Q7_3=1.1 Q7_2=1.1 Q7_1=0 Q7_0=0
+ Q8_3=0 Q8_2=0 Q8_1=1.1 Q8_0=0
+ Q9_3=0 Q9_2=1.1 Q9_1=1.1 Q9_0=1.1
+ Q10_3=0 Q10_2=1.1 Q10_1=0 Q10_0=1.1
+ Q11_3=1.1 Q11_2=0 Q11_1=1.1 Q11_0=1.1
+ Q12_3=1.1 Q12_2=0 Q12_1=1.1 Q12_0=0
+ Q13_3=1.1 Q13_2=1.1 Q13_1=1.1 Q13_0=1.1
+ Q14_3=1.1 Q14_2=1.1 Q14_1=0 Q14_0=0
+ Q15_3=1.1 Q15_2=1.1 Q15_1=0 Q15_0=1.1
+ Q16_3=1.1 Q16_2=1.1 Q16_1=0 Q16_0=1.1                      
+ Q17_3=1.1 Q17_2=0 Q17_1=1.1 Q17_0=0
+ Q18_3=1.1 Q18_2=1.1 Q18_1=1.1 Q18_0=1.1
+ Q19_3=1.1 Q19_2=0 Q19_1=0 Q19_0=0
+ Q20_3=0 Q20_2=1.1 Q20_1=1.1 Q20_0=0
+ Q21_3=1.1 Q21_2=1.1 Q21_1=1.1 Q21_0=0
+ Q22_3=0 Q22_2=1.1 Q22_1=0 Q22_0=1.1
+ Q23_3=0 Q23_2=1.1 Q23_1=1.1 Q23_0=1.1
+ Q24_3=1.1 Q24_2=1.1 Q24_1=1.1 Q24_0=1.1
+ Q25_3=1.1 Q25_2=1.1 Q25_1=1.1 Q25_0=1.1
+ Q26_3=0 Q26_2=0 Q26_1=0 Q26_0=1.1
+ Q27_3=0 Q27_2=0 Q27_1=0 Q27_0=0
+ Q28_3=1.1 Q28_2=1.1 Q28_1=1.1 Q28_0=0
+ Q29_3=0 Q29_2=1.1 Q29_1=0 Q29_0=1.1
+ Q30_3=0 Q30_2=1.1 Q30_1=0 Q30_0=0
+ Q31_3=1.1 Q31_2=0 Q31_1=0 Q31_0=1.1
+ Q32_3=0 Q32_2=1.1 Q32_1=0 Q32_0=0
+ Q33_3=1.1 Q33_2=1.1 Q33_1=1.1 Q33_0=1.1
+ Q34_3=1.1 Q34_2=0 Q34_1=0 Q34_0=1.1
+ Q35_3=1.1 Q35_2=0 Q35_1=0 Q35_0=1.1
+ Q36_3=1.1 Q36_2=0 Q36_1=0 Q36_0=0
+ Q37_3=0 Q37_2=1.1 Q37_1=0 Q37_0=0
+ Q38_3=0 Q38_2=1.1 Q38_1=0 Q38_0=1.1
+ Q39_3=1.1 Q39_2=1.1 Q39_1=1.1 Q39_0=1.1
+ Q40_3=1.1 Q40_2=0 Q40_1=0 Q40_0=0
+ Q41_3=0 Q41_2=1.1 Q41_1=0 Q41_0=0
+ Q42_3=0 Q42_2=0 Q42_1=0 Q42_0=0
+ Q43_3=0 Q43_2=1.1 Q43_1=1.1 Q43_0=1.1
+ Q44_3=1.1 Q44_2=0 Q44_1=0 Q44_0=1.1
+ Q45_3=1.1 Q45_2=1.1 Q45_1=0 Q45_0=0
+ Q46_3=1.1 Q46_2=0 Q46_1=1.1 Q46_0=0
+ Q47_3=0 Q47_2=0 Q47_1=1.1 Q47_0=0
+ Q48_3=0 Q48_2=0 Q48_1=0 Q48_0=1.1
+ Q49_3=1.1 Q49_2=1.1 Q49_1=0 Q49_0=1.1
+ Q50_3=1.1 Q50_2=1.1 Q50_1=1.1 Q50_0=1.1
+ Q51_3=1.1 Q51_2=0 Q51_1=0 Q51_0=1.1
+ Q52_3=1.1 Q52_2=1.1 Q52_1=0 Q52_0=0
+ Q53_3=0 Q53_2=0 Q53_1=1.1 Q53_0=0
+ Q54_3=0 Q54_2=1.1 Q54_1=1.1 Q54_0=1.1
+ Q55_3=0 Q55_2=1.1 Q55_1=1.1 Q55_0=0
+ Q56_3=1.1 Q56_2=1.1 Q56_1=1.1 Q56_0=1.1
+ Q57_3=1.1 Q57_2=0 Q57_1=0 Q57_0=1.1
+ Q58_3=1.1 Q58_2=1.1 Q58_1=1.1 Q58_0=1.1
+ Q59_3=0 Q59_2=1.1 Q59_1=0 Q59_0=1.1
+ Q60_3=1.1 Q60_2=1.1 Q60_1=0 Q60_0=1.1
+ Q61_3=1.1 Q61_2=1.1 Q61_1=1.1 Q61_0=0
+ Q62_3=0 Q62_2=1.1 Q62_1=1.1 Q62_0=1.1
+ Q63_3=0 Q63_2=0 Q63_1=1.1 Q63_0=0 



+ IN0_0=1.1
+ IN1_0=1.1
+ IN2_0=1.1
+ IN3_0=1.1
+ IN4_0=1.1
+ IN5_0=1.1
+ IN6_0=1.1
+ IN7_0=1.1
+ IN8_0=1.1
+ IN9_0=1.1
+ IN10_0=1.1
+ IN11_0=1.1
+ IN12_0=1.1
+ IN13_0=1.1
+ IN14_0=1.1
+ IN15_0=1.1
+ IN16_0=1.1
+ IN17_0=1.1
+ IN18_0=1.1
+ IN19_0=1.1
+ IN20_0=1.1
+ IN21_0=1.1
+ IN22_0=1.1
+ IN23_0=1.1 
+ IN24_0=1.1 
+ IN25_0=1.1
+ IN26_0=1.1
+ IN27_0=1.1
+ IN28_0=1.1
+ IN29_0=1.1
+ IN30_0=1.1
+ IN31_0=1.1
+ IN32_0=1.1
+ IN33_0=1.1
+ IN34_0=1.1
+ IN35_0=1.1
+ IN36_0=1.1
+ IN37_0=1.1
+ IN38_0=1.1
+ IN39_0=1.1
+ IN40_0=1.1
+ IN41_0=1.1
+ IN42_0=1.1
+ IN43_0=1.1
+ IN44_0=1.1
+ IN45_0=1.1
+ IN46_0=1.1
+ IN47_0=1.1
+ IN48_0=1.1
+ IN49_0=1.1
+ IN50_0=1.1
+ IN51_0=1.1
+ IN52_0=1.1
+ IN53_0=1.1
+ IN54_0=1.1
+ IN55_0=1.1
+ IN56_0=1.1
+ IN57_0=1.1
+ IN58_0=1.1
+ IN59_0=1.1
+ IN60_0=1.1
+ IN61_0=1.1
+ IN62_0=1.1
+ IN63_0=1.1


